* NGSPICE file created from user_analog_project_wrapper.ext - technology: sky130A

.subckt sky130_fd_pr__res_generic_nd_SDEVQU a_n3502_1521# a_n3502_n1215# a_n3625_n1337#
X0 a_n3502_n1215# a_n3502_1521# a_n3625_n1337# sky130_fd_pr__res_generic_nd w=420000u l=6.8616e+08u
.ends

.subckt x228k_ndiff_resistor sky130_fd_pr__res_generic_nd_SDEVQU_0/a_n3502_1521# VSUBS
+ sky130_fd_pr__res_generic_nd_SDEVQU_0/a_n3502_n1215#
Xsky130_fd_pr__res_generic_nd_SDEVQU_0 sky130_fd_pr__res_generic_nd_SDEVQU_0/a_n3502_1521#
+ sky130_fd_pr__res_generic_nd_SDEVQU_0/a_n3502_n1215# VSUBS sky130_fd_pr__res_generic_nd_SDEVQU
.ends

.subckt sky130_fd_pr__cap_mim_m3_1_9B94PP$4 c1_n738_n688# m3_n838_n788#
X0 c1_n738_n688# m3_n838_n788# sky130_fd_pr__cap_mim_m3_1 l=6.88e+06u w=6.88e+06u
.ends

.subckt x100f_capacitor$4 sky130_fd_pr__cap_mim_m3_1_9B94PP$4_0/c1_n738_n688# sky130_fd_pr__cap_mim_m3_1_9B94PP$4_0/m3_n838_n788#
Xsky130_fd_pr__cap_mim_m3_1_9B94PP$4_0 sky130_fd_pr__cap_mim_m3_1_9B94PP$4_0/c1_n738_n688#
+ sky130_fd_pr__cap_mim_m3_1_9B94PP$4_0/m3_n838_n788# sky130_fd_pr__cap_mim_m3_1_9B94PP$4
.ends

.subckt sky130_fd_pr__nfet_01v8_BP3WK9$4 a_2167_n5338# a_1967_n5426# a_1909_n5338#
+ a_1807_n5512#
X0 a_2167_n5338# a_1967_n5426# a_1909_n5338# a_1807_n5512# sky130_fd_pr__nfet_01v8 ad=2.9e+11p pd=2.58e+06u as=2.9e+11p ps=2.58e+06u w=1e+06u l=1e+06u
.ends

.subckt x1w1l_nmos$4 sky130_fd_pr__nfet_01v8_BP3WK9$4_0/a_2167_n5338# sky130_fd_pr__nfet_01v8_BP3WK9$4_0/a_1967_n5426#
+ sky130_fd_pr__nfet_01v8_BP3WK9$4_0/a_1909_n5338# VSUBS
Xsky130_fd_pr__nfet_01v8_BP3WK9$4_0 sky130_fd_pr__nfet_01v8_BP3WK9$4_0/a_2167_n5338#
+ sky130_fd_pr__nfet_01v8_BP3WK9$4_0/a_1967_n5426# sky130_fd_pr__nfet_01v8_BP3WK9$4_0/a_1909_n5338#
+ VSUBS sky130_fd_pr__nfet_01v8_BP3WK9$4
.ends

.subckt sky130_fd_pr__pfet_01v8_9GKHW3$4 a_n2270_11865# a_n2012_11865# a_n2212_11768#
+ w_n2408_11646#
X0 a_n2012_11865# a_n2212_11768# a_n2270_11865# w_n2408_11646# sky130_fd_pr__pfet_01v8 ad=5.8e+11p pd=4.58e+06u as=5.8e+11p ps=4.58e+06u w=2e+06u l=1e+06u
.ends

.subckt x2w1l_pmos$4 sky130_fd_pr__pfet_01v8_9GKHW3$4_0/a_n2212_11768# sky130_fd_pr__pfet_01v8_9GKHW3$4_0/a_n2270_11865#
+ sky130_fd_pr__pfet_01v8_9GKHW3$4_0/w_n2408_11646# sky130_fd_pr__pfet_01v8_9GKHW3$4_0/a_n2012_11865#
Xsky130_fd_pr__pfet_01v8_9GKHW3$4_0 sky130_fd_pr__pfet_01v8_9GKHW3$4_0/a_n2270_11865#
+ sky130_fd_pr__pfet_01v8_9GKHW3$4_0/a_n2012_11865# sky130_fd_pr__pfet_01v8_9GKHW3$4_0/a_n2212_11768#
+ sky130_fd_pr__pfet_01v8_9GKHW3$4_0/w_n2408_11646# sky130_fd_pr__pfet_01v8_9GKHW3$4
.ends

.subckt TIA_228k Vdd Vout Iin gnd
X228k_ndiff_resistor_0 Iin gnd li_n3188_n2637# x228k_ndiff_resistor
X100f_capacitor$4_0 Vout li_n3188_n2637# x100f_capacitor$4
X1w1l_nmos$4_0 li_n3188_n2637# Iin gnd gnd x1w1l_nmos$4
X2w1l_pmos$4_0 Iin Vdd Vdd li_n3188_n2637# x2w1l_pmos$4
.ends

.subckt x2G4 a_22237_n20625#
X0 a_22625_n12699# w_22452_n20410# a_22237_n20625# sky130_fd_pr__cap_var w=5e+06u l=1e+07u
X1 a_22237_n20625# a_24184_n23920# a_24184_n23920# a_22237_n20625# sky130_fd_pr__nfet_01v8 ad=3.6395e+13p pd=2.5738e+08u as=7.54e+12p ps=5.432e+07u w=6.5e+06u l=150000u
X2 a_22237_n20625# a_22826_n25802# a_22237_n20625# a_22237_n20625# sky130_fd_pr__nfet_01v8 ad=0p pd=0u as=0p ps=0u w=2e+07u l=150000u
X3 a_22625_n12699# w_22452_n20410# a_22237_n20625# sky130_fd_pr__cap_var w=5e+06u l=1e+07u
X4 a_22625_n20367# w_22452_n20410# a_22237_n20625# sky130_fd_pr__cap_var w=5e+06u l=1e+07u
X5 a_22625_n12699# w_22452_n20410# a_22237_n20625# sky130_fd_pr__cap_var w=5e+06u l=1e+07u
X6 a_22237_n20625# a_24184_n23920# a_24184_n23920# a_22237_n20625# sky130_fd_pr__nfet_01v8 ad=0p pd=0u as=0p ps=0u w=6.5e+06u l=150000u
X7 a_22625_n20367# w_22452_n20410# a_22237_n20625# sky130_fd_pr__cap_var w=5e+06u l=1e+07u
X8 a_22237_n20625# a_24184_n23920# a_22237_n20625# a_22237_n20625# sky130_fd_pr__nfet_01v8 ad=0p pd=0u as=0p ps=0u w=6.5e+06u l=150000u
X9 a_24184_n23920# a_24184_n23920# a_22237_n20625# a_22237_n20625# sky130_fd_pr__nfet_01v8 ad=0p pd=0u as=0p ps=0u w=6.5e+06u l=150000u
X10 a_22237_n20625# a_22826_n25802# a_22237_n20625# a_22237_n20625# sky130_fd_pr__nfet_01v8 ad=0p pd=0u as=0p ps=0u w=2e+07u l=150000u
X11 a_22625_n12699# w_22452_n20410# a_22237_n20625# sky130_fd_pr__cap_var w=5e+06u l=1e+07u
X12 a_22625_n20367# w_22452_n20410# a_22237_n20625# sky130_fd_pr__cap_var w=5e+06u l=1e+07u
X13 a_22237_n20625# a_22826_n25802# a_22237_n20625# a_22237_n20625# sky130_fd_pr__nfet_01v8 ad=0p pd=0u as=0p ps=0u w=2e+07u l=150000u
X14 a_22625_n12699# w_22452_n20410# a_22237_n20625# sky130_fd_pr__cap_var w=5e+06u l=1e+07u
X15 a_22625_n12699# w_22452_n20410# a_22237_n20625# sky130_fd_pr__cap_var w=5e+06u l=1e+07u
X16 a_22625_n20367# w_22452_n20410# a_22237_n20625# sky130_fd_pr__cap_var w=5e+06u l=1e+07u
X17 a_22625_n12699# w_22452_n20410# a_22237_n20625# sky130_fd_pr__cap_var w=5e+06u l=1e+07u
X18 a_22625_n20367# w_22452_n20410# a_22237_n20625# sky130_fd_pr__cap_var w=5e+06u l=1e+07u
X19 a_24184_n23920# a_24184_n23920# a_22237_n20625# a_22237_n20625# sky130_fd_pr__nfet_01v8 ad=0p pd=0u as=0p ps=0u w=6.5e+06u l=150000u
X20 a_22237_n20625# a_24184_n23920# a_24184_n23920# a_22237_n20625# sky130_fd_pr__nfet_01v8 ad=0p pd=0u as=0p ps=0u w=6.5e+06u l=150000u
X21 a_22237_n20625# a_24184_n23920# a_24184_n23920# a_22237_n20625# sky130_fd_pr__nfet_01v8 ad=0p pd=0u as=0p ps=0u w=6.5e+06u l=150000u
X22 a_24184_n23920# a_24184_n23920# a_22237_n20625# a_22237_n20625# sky130_fd_pr__nfet_01v8 ad=0p pd=0u as=0p ps=0u w=6.5e+06u l=150000u
X23 a_22625_n20367# w_22452_n20410# a_22237_n20625# sky130_fd_pr__cap_var w=5e+06u l=1e+07u
X24 a_22625_n12699# w_22452_n20410# a_22237_n20625# sky130_fd_pr__cap_var w=5e+06u l=1e+07u
X25 a_22625_n20367# w_22452_n20410# a_22237_n20625# sky130_fd_pr__cap_var w=5e+06u l=1e+07u
X26 a_22625_n20367# w_22452_n20410# a_22237_n20625# sky130_fd_pr__cap_var w=5e+06u l=1e+07u
X27 a_22237_n20625# a_24184_n23920# a_22237_n20625# a_22237_n20625# sky130_fd_pr__nfet_01v8 ad=0p pd=0u as=0p ps=0u w=6.5e+06u l=150000u
X28 a_24184_n23920# a_24184_n23920# a_22237_n20625# a_22237_n20625# sky130_fd_pr__nfet_01v8 ad=0p pd=0u as=0p ps=0u w=6.5e+06u l=150000u
.ends

.subckt sky130_fd_pr__nfet_01v8_lvt_D7LUG4$2 RST VDD Ib D1 D2 D3 D4 D5 D6 D7 D1-N
+ D2-N D3-N-a D3-P-b D3-N-b D4-N-a D4-P-b D4-N-b D5-N-a D5-N-b D5-P-b D5-P-c D5-N-c
+ D6-N-a D6-N-b GND D7-N-c D7-N-b D7-N-a a_12347_63503# w_12412_197573# w_12412_185573#
+ w_12312_17573# w_12304_209497# w_12398_101543# w_12304_233497# li_5732_3953# w_12304_221497#
+ w_12204_53497# w_12592_149753#
X0 VDD w_12092_n6647# D1 GND sky130_fd_pr__nfet_01v8_lvt ad=1.3398e+13p pd=1.0052e+08u as=1.914e+12p ps=1.436e+07u w=3.3e+06u l=300000u
X1 VDD dw_12172_65433# D7 GND sky130_fd_pr__nfet_01v8_lvt ad=0p pd=0u as=1.914e+12p ps=1.436e+07u w=3.3e+06u l=300000u
X2 D5 a_12347_63503# GND GND sky130_fd_pr__nfet_01v8_lvt ad=1.914e+12p pd=1.436e+07u as=6.699e+12p ps=5.026e+07u w=3.3e+06u l=300000u
X3 D4 a_12347_63503# GND GND sky130_fd_pr__nfet_01v8_lvt ad=1.914e+12p pd=1.436e+07u as=0p ps=0u w=3.3e+06u l=300000u
X4 D1 a_12347_63503# GND GND sky130_fd_pr__nfet_01v8_lvt ad=0p pd=0u as=0p ps=0u w=3.3e+06u l=300000u
X5 w_12092_n6647# RST VDD GND sky130_fd_pr__nfet_01v8_lvt ad=1.46957e+14p pd=2.9918e+08u as=0p ps=0u w=3.3e+06u l=300000u
X6 D6 a_12347_63503# GND GND sky130_fd_pr__nfet_01v8_lvt ad=1.914e+12p pd=1.436e+07u as=0p ps=0u w=3.3e+06u l=300000u
X7 D2 a_12347_63503# GND GND sky130_fd_pr__nfet_01v8_lvt ad=1.914e+12p pd=1.436e+07u as=0p ps=0u w=3.3e+06u l=300000u
D0 GND dw_12092_17353# sky130_fd_pr__model__parasitic__diode_ps2dn area=1e+14p
X8 VDD dw_12012_41273# D5 GND sky130_fd_pr__nfet_01v8_lvt ad=0p pd=0u as=0p ps=0u w=3.3e+06u l=300000u
X9 VDD dw_12046_29291# D4 GND sky130_fd_pr__nfet_01v8_lvt ad=0p pd=0u as=0p ps=0u w=3.3e+06u l=300000u
D1 GND D6-N-b sky130_fd_pr__model__parasitic__diode_ps2dn area=1e+14p
X10 D3 a_12347_63503# GND GND sky130_fd_pr__nfet_01v8_lvt ad=1.914e+12p pd=1.436e+07u as=0p ps=0u w=3.3e+06u l=300000u
X11 VDD dw_11948_53241# D6 GND sky130_fd_pr__nfet_01v8_lvt ad=0p pd=0u as=0p ps=0u w=3.3e+06u l=300000u
X12 VDD a_12092_5353# D2 GND sky130_fd_pr__nfet_01v8_lvt ad=0p pd=0u as=0p ps=0u w=3.3e+06u l=300000u
D2 GND D7-N-a sky130_fd_pr__model__parasitic__diode_ps2dn area=3.2768e+14p
X13 dw_12172_65433# RST VDD GND sky130_fd_pr__nfet_01v8_lvt ad=9.5165e+13p pd=3.0158e+08u as=0p ps=0u w=3.3e+06u l=300000u
X14 VDD dw_12092_17353# D3 GND sky130_fd_pr__nfet_01v8_lvt ad=0p pd=0u as=0p ps=0u w=3.3e+06u l=300000u
D3 GND D7-N-b sky130_fd_pr__model__parasitic__diode_ps2dn area=3.2768e+14p
D4 GND dw_14032_235353# sky130_fd_pr__model__parasitic__diode_ps2dn area=3.2768e+14p
X15 dw_11948_53241# RST VDD GND sky130_fd_pr__nfet_01v8_lvt ad=1.01821e+14p pd=3.2078e+08u as=0p ps=0u w=3.3e+06u l=300000u
D5 GND dw_11948_53241# sky130_fd_pr__model__parasitic__diode_ps2dn area=3.2768e+14p
X16 a_12092_5353# RST VDD GND sky130_fd_pr__nfet_01v8_lvt ad=1.42696e+15p pd=1.6118e+08u as=0p ps=0u w=3.3e+06u l=300000u
D6 GND D6-N-a sky130_fd_pr__model__parasitic__diode_ps2dn area=1e+14p
X17 dw_12092_17353# RST VDD GND sky130_fd_pr__nfet_01v8_lvt ad=7.7957e+13p pd=3.1518e+08u as=0p ps=0u w=3.3e+06u l=300000u
X18 D7 a_12347_63503# GND GND sky130_fd_pr__nfet_01v8_lvt ad=0p pd=0u as=0p ps=0u w=3.3e+06u l=300000u
X19 dw_12012_41273# RST VDD GND sky130_fd_pr__nfet_01v8_lvt ad=1.0608e+15p pd=4.3118e+08u as=0p ps=0u w=3.3e+06u l=300000u
X20 dw_12046_29291# RST VDD GND sky130_fd_pr__nfet_01v8_lvt ad=9.6213e+13p pd=3.0958e+08u as=0p ps=0u w=3.3e+06u l=300000u
.ends

.subckt sky130_fd_pr__nfet_01v8_PTDE5C$2 a_499_1522# a_342_1436# a_444_1610#
X0 a_444_1610# a_499_1522# a_499_1522# a_342_1436# sky130_fd_pr__nfet_01v8 ad=1.0527e+13p pd=7.898e+07u as=9.57e+12p ps=7.18e+07u w=3.3e+06u l=300000u
X1 a_499_1522# a_499_1522# a_444_1610# a_342_1436# sky130_fd_pr__nfet_01v8 ad=0p pd=0u as=0p ps=0u w=3.3e+06u l=300000u
X2 a_499_1522# a_499_1522# a_444_1610# a_342_1436# sky130_fd_pr__nfet_01v8 ad=0p pd=0u as=0p ps=0u w=3.3e+06u l=300000u
X3 a_499_1522# a_499_1522# a_444_1610# a_342_1436# sky130_fd_pr__nfet_01v8 ad=0p pd=0u as=0p ps=0u w=3.3e+06u l=300000u
X4 a_499_1522# a_499_1522# a_444_1610# a_342_1436# sky130_fd_pr__nfet_01v8 ad=0p pd=0u as=0p ps=0u w=3.3e+06u l=300000u
X5 a_499_1522# a_499_1522# a_444_1610# a_342_1436# sky130_fd_pr__nfet_01v8 ad=0p pd=0u as=0p ps=0u w=3.3e+06u l=300000u
X6 a_444_1610# a_499_1522# a_499_1522# a_342_1436# sky130_fd_pr__nfet_01v8 ad=0p pd=0u as=0p ps=0u w=3.3e+06u l=300000u
X7 a_499_1522# a_499_1522# a_444_1610# a_342_1436# sky130_fd_pr__nfet_01v8 ad=0p pd=0u as=0p ps=0u w=3.3e+06u l=300000u
X8 a_444_1610# a_499_1522# a_499_1522# a_342_1436# sky130_fd_pr__nfet_01v8 ad=0p pd=0u as=0p ps=0u w=3.3e+06u l=300000u
X9 a_444_1610# a_499_1522# a_499_1522# a_342_1436# sky130_fd_pr__nfet_01v8 ad=0p pd=0u as=0p ps=0u w=3.3e+06u l=300000u
X10 a_499_1522# a_499_1522# a_444_1610# a_342_1436# sky130_fd_pr__nfet_01v8 ad=0p pd=0u as=0p ps=0u w=3.3e+06u l=300000u
X11 a_444_1610# a_499_1522# a_499_1522# a_342_1436# sky130_fd_pr__nfet_01v8 ad=0p pd=0u as=0p ps=0u w=3.3e+06u l=300000u
X12 a_499_1522# a_499_1522# a_444_1610# a_342_1436# sky130_fd_pr__nfet_01v8 ad=0p pd=0u as=0p ps=0u w=3.3e+06u l=300000u
X13 a_444_1610# a_499_1522# a_499_1522# a_342_1436# sky130_fd_pr__nfet_01v8 ad=0p pd=0u as=0p ps=0u w=3.3e+06u l=300000u
X14 a_499_1522# a_499_1522# a_444_1610# a_342_1436# sky130_fd_pr__nfet_01v8 ad=0p pd=0u as=0p ps=0u w=3.3e+06u l=300000u
X15 a_499_1522# a_499_1522# a_444_1610# a_342_1436# sky130_fd_pr__nfet_01v8 ad=0p pd=0u as=0p ps=0u w=3.3e+06u l=300000u
X16 a_444_1610# a_499_1522# a_499_1522# a_342_1436# sky130_fd_pr__nfet_01v8 ad=0p pd=0u as=0p ps=0u w=3.3e+06u l=300000u
X17 a_444_1610# a_499_1522# a_499_1522# a_342_1436# sky130_fd_pr__nfet_01v8 ad=0p pd=0u as=0p ps=0u w=3.3e+06u l=300000u
X18 a_444_1610# a_499_1522# a_499_1522# a_342_1436# sky130_fd_pr__nfet_01v8 ad=0p pd=0u as=0p ps=0u w=3.3e+06u l=300000u
X19 a_444_1610# a_499_1522# a_499_1522# a_342_1436# sky130_fd_pr__nfet_01v8 ad=0p pd=0u as=0p ps=0u w=3.3e+06u l=300000u
.ends

.subckt sky130_fd_pr__diode_pw2nd_05v5_VLZ7RW$1 a_n500_n500# a_n602_n602#
D0 a_n602_n602# a_n500_n500# sky130_fd_pr__diode_pw2nd_05v5 pj=2e+07u area=2.5e+13p
.ends

.subckt photo_V3 sky130_fd_pr__nfet_01v8_lvt_D7LUG4$2_0/D5-P-c sky130_fd_pr__nfet_01v8_lvt_D7LUG4$2_0/D5-P-b
+ w_10320_189420# w_10320_201420# w_10112_57344# sky130_fd_pr__nfet_01v8_lvt_D7LUG4$2_0/D3-P-b
+ w_10500_153600# w_10306_105390# w_10212_237344# w_10212_225344# w_10212_213344#
+ w_10220_21420# sky130_fd_pr__nfet_01v8_lvt_D7LUG4$2_0/GND
Xsky130_fd_pr__nfet_01v8_lvt_D7LUG4$2_0 sky130_fd_pr__nfet_01v8_lvt_D7LUG4$2_0/RST
+ sky130_fd_pr__nfet_01v8_lvt_D7LUG4$2_0/VDD sky130_fd_pr__nfet_01v8_lvt_D7LUG4$2_0/Ib
+ sky130_fd_pr__nfet_01v8_lvt_D7LUG4$2_0/D1 sky130_fd_pr__nfet_01v8_lvt_D7LUG4$2_0/D2
+ sky130_fd_pr__nfet_01v8_lvt_D7LUG4$2_0/D3 sky130_fd_pr__nfet_01v8_lvt_D7LUG4$2_0/D4
+ sky130_fd_pr__nfet_01v8_lvt_D7LUG4$2_0/D5 sky130_fd_pr__nfet_01v8_lvt_D7LUG4$2_0/D6
+ sky130_fd_pr__nfet_01v8_lvt_D7LUG4$2_0/D7 sky130_fd_pr__nfet_01v8_lvt_D7LUG4$2_0/D1-N
+ sky130_fd_pr__nfet_01v8_lvt_D7LUG4$2_0/D2-N sky130_fd_pr__nfet_01v8_lvt_D7LUG4$2_0/D3-N-a
+ sky130_fd_pr__nfet_01v8_lvt_D7LUG4$2_0/D3-P-b sky130_fd_pr__nfet_01v8_lvt_D7LUG4$2_0/D3-N-b
+ sky130_fd_pr__nfet_01v8_lvt_D7LUG4$2_0/D4-N-a sky130_fd_pr__nfet_01v8_lvt_D7LUG4$2_0/D4-P-b
+ sky130_fd_pr__nfet_01v8_lvt_D7LUG4$2_0/D4-N-b sky130_fd_pr__nfet_01v8_lvt_D7LUG4$2_0/D5-N-a
+ sky130_fd_pr__nfet_01v8_lvt_D7LUG4$2_0/D5-N-b sky130_fd_pr__nfet_01v8_lvt_D7LUG4$2_0/D5-P-b
+ sky130_fd_pr__nfet_01v8_lvt_D7LUG4$2_0/D5-P-c sky130_fd_pr__nfet_01v8_lvt_D7LUG4$2_0/D5-N-c
+ sky130_fd_pr__nfet_01v8_lvt_D7LUG4$2_0/D6-N-a sky130_fd_pr__nfet_01v8_lvt_D7LUG4$2_0/D6-N-b
+ sky130_fd_pr__nfet_01v8_lvt_D7LUG4$2_0/GND sky130_fd_pr__nfet_01v8_lvt_D7LUG4$2_0/D7-N-c
+ sky130_fd_pr__nfet_01v8_lvt_D7LUG4$2_0/D7-N-b sky130_fd_pr__nfet_01v8_lvt_D7LUG4$2_0/D7-N-a
+ sky130_fd_pr__nfet_01v8_lvt_D7LUG4$2_0/Ib w_10320_201420# w_10320_189420# w_10220_21420#
+ w_10212_213344# w_10306_105390# w_10212_237344# sky130_fd_pr__nfet_01v8_lvt_D7LUG4$2_0/GND
+ w_10212_225344# w_10112_57344# w_10500_153600# sky130_fd_pr__nfet_01v8_lvt_D7LUG4$2
Xsky130_fd_pr__nfet_01v8_PTDE5C$2_0 sky130_fd_pr__nfet_01v8_lvt_D7LUG4$2_0/Ib sky130_fd_pr__nfet_01v8_lvt_D7LUG4$2_0/GND
+ sky130_fd_pr__nfet_01v8_lvt_D7LUG4$2_0/GND sky130_fd_pr__nfet_01v8_PTDE5C$2
Xsky130_fd_pr__diode_pw2nd_05v5_VLZ7RW$1_0 sky130_fd_pr__nfet_01v8_lvt_D7LUG4$2_0/RST
+ sky130_fd_pr__nfet_01v8_lvt_D7LUG4$2_0/GND sky130_fd_pr__diode_pw2nd_05v5_VLZ7RW$1
.ends

.subckt x10G a_21787_n17615#
X0 a_21787_n17615# a_22872_n12668# a_21787_n17615# a_21787_n17615# sky130_fd_pr__nfet_01v8 ad=8.7145e+13p pd=6.0796e+08u as=0p ps=0u w=2.15e+07u l=150000u
X1 a_21787_n17615# a_21916_n17446# a_22082_n17398# a_21787_n17615# sky130_fd_pr__nfet_01v8 ad=0p pd=0u as=3.48e+13p ps=2.4232e+08u w=3e+07u l=150000u
X2 a_22082_n17398# a_21916_n17446# a_21787_n17615# a_21787_n17615# sky130_fd_pr__nfet_01v8 ad=0p pd=0u as=0p ps=0u w=3e+07u l=150000u
X3 a_21787_n17615# a_21916_n17446# a_22082_n17398# a_21787_n17615# sky130_fd_pr__nfet_01v8 ad=0p pd=0u as=0p ps=0u w=3e+07u l=150000u
X4 a_22872_n12668# a_22732_n12422# a_21787_n17615# a_21787_n17615# sky130_fd_pr__nfet_01v8 ad=1.247e+13p pd=8.716e+07u as=0p ps=0u w=2.15e+07u l=150000u
X5 a_22872_n12668# a_22732_n12422# a_21787_n17615# a_21787_n17615# sky130_fd_pr__nfet_01v8 ad=0p pd=0u as=0p ps=0u w=2.15e+07u l=150000u
X6 a_21787_n17615# a_22872_n12668# a_22732_n12422# a_21787_n17615# sky130_fd_pr__nfet_01v8 ad=0p pd=0u as=1.247e+13p ps=8.716e+07u w=2.15e+07u l=150000u
X7 a_22082_n17398# a_21916_n17446# a_21787_n17615# a_21787_n17615# sky130_fd_pr__nfet_01v8 ad=0p pd=0u as=0p ps=0u w=3e+07u l=150000u
X8 a_22082_n17398# a_21916_n17446# a_21787_n17615# a_21787_n17615# sky130_fd_pr__nfet_01v8 ad=0p pd=0u as=0p ps=0u w=3e+07u l=150000u
X9 a_21787_n17615# a_22732_n12422# a_21787_n17615# a_21787_n17615# sky130_fd_pr__nfet_01v8 ad=0p pd=0u as=0p ps=0u w=2.15e+07u l=150000u
X10 a_22732_n12422# a_22872_n12668# a_21787_n17615# a_21787_n17615# sky130_fd_pr__nfet_01v8 ad=0p pd=0u as=0p ps=0u w=2.15e+07u l=150000u
X11 a_21787_n17615# a_21916_n17446# a_22082_n17398# a_21787_n17615# sky130_fd_pr__nfet_01v8 ad=0p pd=0u as=0p ps=0u w=3e+07u l=150000u
X12 a_21787_n17615# a_22872_n12668# a_22732_n12422# a_21787_n17615# sky130_fd_pr__nfet_01v8 ad=0p pd=0u as=0p ps=0u w=2.15e+07u l=150000u
X13 a_22732_n12422# a_22872_n12668# a_21787_n17615# a_21787_n17615# sky130_fd_pr__nfet_01v8 ad=0p pd=0u as=0p ps=0u w=2.15e+07u l=150000u
X14 a_22082_n17398# a_21916_n17446# a_21787_n17615# a_21787_n17615# sky130_fd_pr__nfet_01v8 ad=0p pd=0u as=0p ps=0u w=3e+07u l=150000u
X15 a_21787_n17615# a_21916_n17446# a_22082_n17398# a_21787_n17615# sky130_fd_pr__nfet_01v8 ad=0p pd=0u as=0p ps=0u w=3e+07u l=150000u
X16 a_21787_n17615# a_22732_n12422# a_22872_n12668# a_21787_n17615# sky130_fd_pr__nfet_01v8 ad=0p pd=0u as=0p ps=0u w=2.15e+07u l=150000u
X17 a_21787_n17615# a_22732_n12422# a_22872_n12668# a_21787_n17615# sky130_fd_pr__nfet_01v8 ad=0p pd=0u as=0p ps=0u w=2.15e+07u l=150000u
.ends

.subckt sky130_fd_pr__nfet_01v8_lvt_D7LUG4$1 a_12347_63503# w_12298_29543# w_12312_17573#
+ m1_3292_n7247# w_12204_53497#
X0 a_12690_63591# w_12092_n6647# a_12450_3501# w_12298_29543# sky130_fd_pr__nfet_01v8_lvt ad=1.3398e+13p pd=1.0052e+08u as=1.914e+12p ps=1.436e+07u w=3.3e+06u l=300000u
X1 a_12690_63591# dw_12172_65433# a_12426_75607# w_12298_29543# sky130_fd_pr__nfet_01v8_lvt ad=0p pd=0u as=1.914e+12p ps=1.436e+07u w=3.3e+06u l=300000u
X2 a_12426_51575# a_12347_63503# w_12298_29543# w_12298_29543# sky130_fd_pr__nfet_01v8_lvt ad=1.914e+12p pd=1.436e+07u as=6.699e+12p ps=5.026e+07u w=3.3e+06u l=300000u
X3 a_12427_39564# a_12347_63503# w_12298_29543# w_12298_29543# sky130_fd_pr__nfet_01v8_lvt ad=1.914e+12p pd=1.436e+07u as=0p ps=0u w=3.3e+06u l=300000u
X4 a_12450_3501# a_12347_63503# w_12298_29543# w_12298_29543# sky130_fd_pr__nfet_01v8_lvt ad=0p pd=0u as=0p ps=0u w=3.3e+06u l=300000u
X5 w_12092_n6647# a_12907_64271# a_12690_63591# w_12298_29543# sky130_fd_pr__nfet_01v8_lvt ad=1.46957e+14p pd=2.9918e+08u as=0p ps=0u w=3.3e+06u l=300000u
X6 a_12410_63591# a_12347_63503# w_12298_29543# w_12298_29543# sky130_fd_pr__nfet_01v8_lvt ad=1.914e+12p pd=1.436e+07u as=0p ps=0u w=3.3e+06u l=300000u
X7 a_12430_15421# a_12347_63503# w_12298_29543# w_12298_29543# sky130_fd_pr__nfet_01v8_lvt ad=1.914e+12p pd=1.436e+07u as=0p ps=0u w=3.3e+06u l=300000u
D0 w_12298_29543# dw_12092_17353# sky130_fd_pr__model__parasitic__diode_ps2dn area=1e+14p
X8 a_12690_63591# dw_12012_41273# a_12426_51575# w_12298_29543# sky130_fd_pr__nfet_01v8_lvt ad=0p pd=0u as=0p ps=0u w=3.3e+06u l=300000u
X9 a_12690_63591# dw_12046_29291# a_12427_39564# w_12298_29543# sky130_fd_pr__nfet_01v8_lvt ad=0p pd=0u as=0p ps=0u w=3.3e+06u l=300000u
X10 a_12450_27381# a_12347_63503# w_12298_29543# w_12298_29543# sky130_fd_pr__nfet_01v8_lvt ad=1.914e+12p pd=1.436e+07u as=0p ps=0u w=3.3e+06u l=300000u
X11 a_12690_63591# dw_11948_53241# a_12410_63591# w_12298_29543# sky130_fd_pr__nfet_01v8_lvt ad=0p pd=0u as=0p ps=0u w=3.3e+06u l=300000u
X12 a_12690_63591# a_12092_5353# a_12430_15421# w_12298_29543# sky130_fd_pr__nfet_01v8_lvt ad=0p pd=0u as=0p ps=0u w=3.3e+06u l=300000u
X13 dw_12172_65433# a_12907_64271# a_12690_63591# w_12298_29543# sky130_fd_pr__nfet_01v8_lvt ad=9.5165e+13p pd=3.0158e+08u as=0p ps=0u w=3.3e+06u l=300000u
X14 a_12690_63591# dw_12092_17353# a_12450_27381# w_12298_29543# sky130_fd_pr__nfet_01v8_lvt ad=0p pd=0u as=0p ps=0u w=3.3e+06u l=300000u
X15 dw_11948_53241# a_12907_64271# a_12690_63591# w_12298_29543# sky130_fd_pr__nfet_01v8_lvt ad=1.01821e+14p pd=3.2078e+08u as=0p ps=0u w=3.3e+06u l=300000u
D1 w_12298_29543# dw_11948_53241# sky130_fd_pr__model__parasitic__diode_ps2dn area=3.2768e+14p
X16 a_12092_5353# a_12907_64271# a_12690_63591# w_12298_29543# sky130_fd_pr__nfet_01v8_lvt ad=1.42696e+15p pd=1.6118e+08u as=0p ps=0u w=3.3e+06u l=300000u
X17 dw_12092_17353# a_12907_64271# a_12690_63591# w_12298_29543# sky130_fd_pr__nfet_01v8_lvt ad=7.7957e+13p pd=3.1518e+08u as=0p ps=0u w=3.3e+06u l=300000u
X18 a_12426_75607# a_12347_63503# w_12298_29543# w_12298_29543# sky130_fd_pr__nfet_01v8_lvt ad=0p pd=0u as=0p ps=0u w=3.3e+06u l=300000u
X19 dw_12012_41273# a_12907_64271# a_12690_63591# w_12298_29543# sky130_fd_pr__nfet_01v8_lvt ad=1.0608e+15p pd=4.3118e+08u as=0p ps=0u w=3.3e+06u l=300000u
X20 dw_12046_29291# a_12907_64271# a_12690_63591# w_12298_29543# sky130_fd_pr__nfet_01v8_lvt ad=9.6213e+13p pd=3.0958e+08u as=0p ps=0u w=3.3e+06u l=300000u
.ends

.subckt sky130_fd_pr__nfet_01v8_PTDE5C$1 a_499_1522# a_342_1436# a_444_1610#
X0 a_444_1610# a_499_1522# a_499_1522# a_342_1436# sky130_fd_pr__nfet_01v8 ad=1.0527e+13p pd=7.898e+07u as=9.57e+12p ps=7.18e+07u w=3.3e+06u l=300000u
X1 a_499_1522# a_499_1522# a_444_1610# a_342_1436# sky130_fd_pr__nfet_01v8 ad=0p pd=0u as=0p ps=0u w=3.3e+06u l=300000u
X2 a_499_1522# a_499_1522# a_444_1610# a_342_1436# sky130_fd_pr__nfet_01v8 ad=0p pd=0u as=0p ps=0u w=3.3e+06u l=300000u
X3 a_499_1522# a_499_1522# a_444_1610# a_342_1436# sky130_fd_pr__nfet_01v8 ad=0p pd=0u as=0p ps=0u w=3.3e+06u l=300000u
X4 a_499_1522# a_499_1522# a_444_1610# a_342_1436# sky130_fd_pr__nfet_01v8 ad=0p pd=0u as=0p ps=0u w=3.3e+06u l=300000u
X5 a_499_1522# a_499_1522# a_444_1610# a_342_1436# sky130_fd_pr__nfet_01v8 ad=0p pd=0u as=0p ps=0u w=3.3e+06u l=300000u
X6 a_444_1610# a_499_1522# a_499_1522# a_342_1436# sky130_fd_pr__nfet_01v8 ad=0p pd=0u as=0p ps=0u w=3.3e+06u l=300000u
X7 a_499_1522# a_499_1522# a_444_1610# a_342_1436# sky130_fd_pr__nfet_01v8 ad=0p pd=0u as=0p ps=0u w=3.3e+06u l=300000u
X8 a_444_1610# a_499_1522# a_499_1522# a_342_1436# sky130_fd_pr__nfet_01v8 ad=0p pd=0u as=0p ps=0u w=3.3e+06u l=300000u
X9 a_444_1610# a_499_1522# a_499_1522# a_342_1436# sky130_fd_pr__nfet_01v8 ad=0p pd=0u as=0p ps=0u w=3.3e+06u l=300000u
X10 a_499_1522# a_499_1522# a_444_1610# a_342_1436# sky130_fd_pr__nfet_01v8 ad=0p pd=0u as=0p ps=0u w=3.3e+06u l=300000u
X11 a_444_1610# a_499_1522# a_499_1522# a_342_1436# sky130_fd_pr__nfet_01v8 ad=0p pd=0u as=0p ps=0u w=3.3e+06u l=300000u
X12 a_499_1522# a_499_1522# a_444_1610# a_342_1436# sky130_fd_pr__nfet_01v8 ad=0p pd=0u as=0p ps=0u w=3.3e+06u l=300000u
X13 a_444_1610# a_499_1522# a_499_1522# a_342_1436# sky130_fd_pr__nfet_01v8 ad=0p pd=0u as=0p ps=0u w=3.3e+06u l=300000u
X14 a_499_1522# a_499_1522# a_444_1610# a_342_1436# sky130_fd_pr__nfet_01v8 ad=0p pd=0u as=0p ps=0u w=3.3e+06u l=300000u
X15 a_499_1522# a_499_1522# a_444_1610# a_342_1436# sky130_fd_pr__nfet_01v8 ad=0p pd=0u as=0p ps=0u w=3.3e+06u l=300000u
X16 a_444_1610# a_499_1522# a_499_1522# a_342_1436# sky130_fd_pr__nfet_01v8 ad=0p pd=0u as=0p ps=0u w=3.3e+06u l=300000u
X17 a_444_1610# a_499_1522# a_499_1522# a_342_1436# sky130_fd_pr__nfet_01v8 ad=0p pd=0u as=0p ps=0u w=3.3e+06u l=300000u
X18 a_444_1610# a_499_1522# a_499_1522# a_342_1436# sky130_fd_pr__nfet_01v8 ad=0p pd=0u as=0p ps=0u w=3.3e+06u l=300000u
X19 a_444_1610# a_499_1522# a_499_1522# a_342_1436# sky130_fd_pr__nfet_01v8 ad=0p pd=0u as=0p ps=0u w=3.3e+06u l=300000u
.ends

.subckt photo_V1 w_10112_57344# w_10220_21420# VSUBS
Xsky130_fd_pr__nfet_01v8_lvt_D7LUG4$1_0 sky130_fd_pr__nfet_01v8_PTDE5C$1_0/a_499_1522#
+ VSUBS w_10220_21420# sky130_fd_pr__nfet_01v8_PTDE5C$1_0/a_499_1522# w_10112_57344#
+ sky130_fd_pr__nfet_01v8_lvt_D7LUG4$1
Xsky130_fd_pr__nfet_01v8_PTDE5C$1_0 sky130_fd_pr__nfet_01v8_PTDE5C$1_0/a_499_1522#
+ VSUBS VSUBS sky130_fd_pr__nfet_01v8_PTDE5C$1
.ends

.subckt varactors4september
.ends

.subckt sky130_fd_pr__pfet_01v8_9GKHW3$3 a_n2270_11865# a_n2012_11865# a_n2212_11768#
+ w_n2408_11646#
X0 a_n2012_11865# a_n2212_11768# a_n2270_11865# w_n2408_11646# sky130_fd_pr__pfet_01v8 ad=5.8e+11p pd=4.58e+06u as=5.8e+11p ps=4.58e+06u w=2e+06u l=1e+06u
.ends

.subckt x2w1l_pmos$3 sky130_fd_pr__pfet_01v8_9GKHW3$3_0/w_n2408_11646# sky130_fd_pr__pfet_01v8_9GKHW3$3_0/a_n2012_11865#
+ sky130_fd_pr__pfet_01v8_9GKHW3$3_0/a_n2212_11768# sky130_fd_pr__pfet_01v8_9GKHW3$3_0/a_n2270_11865#
Xsky130_fd_pr__pfet_01v8_9GKHW3$3_0 sky130_fd_pr__pfet_01v8_9GKHW3$3_0/a_n2270_11865#
+ sky130_fd_pr__pfet_01v8_9GKHW3$3_0/a_n2012_11865# sky130_fd_pr__pfet_01v8_9GKHW3$3_0/a_n2212_11768#
+ sky130_fd_pr__pfet_01v8_9GKHW3$3_0/w_n2408_11646# sky130_fd_pr__pfet_01v8_9GKHW3$3
.ends

.subckt sky130_fd_pr__cap_mim_m3_1_9B94PP$3 c1_n738_n688# m3_n838_n788#
X0 c1_n738_n688# m3_n838_n788# sky130_fd_pr__cap_mim_m3_1 l=6.88e+06u w=6.88e+06u
.ends

.subckt x100f_capacitor$3 sky130_fd_pr__cap_mim_m3_1_9B94PP$3_0/m3_n838_n788# sky130_fd_pr__cap_mim_m3_1_9B94PP$3_0/c1_n738_n688#
Xsky130_fd_pr__cap_mim_m3_1_9B94PP$3_0 sky130_fd_pr__cap_mim_m3_1_9B94PP$3_0/c1_n738_n688#
+ sky130_fd_pr__cap_mim_m3_1_9B94PP$3_0/m3_n838_n788# sky130_fd_pr__cap_mim_m3_1_9B94PP$3
.ends

.subckt sky130_fd_pr__res_generic_nd_ZL93MZ a_n1410_n5123# a_1326_n5123# a_n1532_n5246#
X0 a_n1410_n5123# a_1326_n5123# a_n1532_n5246# sky130_fd_pr__res_generic_nd w=420000u l=1.00816e+09u
.ends

.subckt x332k_ndiff_resistor sky130_fd_pr__res_generic_nd_ZL93MZ_0/a_1326_n5123# sky130_fd_pr__res_generic_nd_ZL93MZ_0/a_n1410_n5123#
+ VSUBS
Xsky130_fd_pr__res_generic_nd_ZL93MZ_0 sky130_fd_pr__res_generic_nd_ZL93MZ_0/a_n1410_n5123#
+ sky130_fd_pr__res_generic_nd_ZL93MZ_0/a_1326_n5123# VSUBS sky130_fd_pr__res_generic_nd_ZL93MZ
.ends

.subckt sky130_fd_pr__nfet_01v8_BP3WK9$3 a_2167_n5338# a_1967_n5426# a_1909_n5338#
+ a_1807_n5512#
X0 a_2167_n5338# a_1967_n5426# a_1909_n5338# a_1807_n5512# sky130_fd_pr__nfet_01v8 ad=2.9e+11p pd=2.58e+06u as=2.9e+11p ps=2.58e+06u w=1e+06u l=1e+06u
.ends

.subckt x1w1l_nmos$3 sky130_fd_pr__nfet_01v8_BP3WK9$3_0/a_2167_n5338# sky130_fd_pr__nfet_01v8_BP3WK9$3_0/a_1967_n5426#
+ sky130_fd_pr__nfet_01v8_BP3WK9$3_0/a_1909_n5338# VSUBS
Xsky130_fd_pr__nfet_01v8_BP3WK9$3_0 sky130_fd_pr__nfet_01v8_BP3WK9$3_0/a_2167_n5338#
+ sky130_fd_pr__nfet_01v8_BP3WK9$3_0/a_1967_n5426# sky130_fd_pr__nfet_01v8_BP3WK9$3_0/a_1909_n5338#
+ VSUBS sky130_fd_pr__nfet_01v8_BP3WK9$3
.ends

.subckt TIA_332k Vdd Vout Iin gnd
X2w1l_pmos$3_0 Vdd li_n5042_n2631# Iin Vdd x2w1l_pmos$3
X100f_capacitor$3_0 li_n5042_n2631# Vout x100f_capacitor$3
X332k_ndiff_resistor_0 li_n5042_n2631# Iin gnd x332k_ndiff_resistor
X1w1l_nmos$3_0 li_n5042_n2631# Iin gnd gnd x1w1l_nmos$3
.ends

.subckt sky130_fd_pr__cap_mim_m3_1_8NU5HM$2 c1_n2155_n7555# m3_n7444_n7655# m3_n2255_n7655#
+ m3_n7444_n2565# c1_3034_n7555# m3_2934_n7655# c1_n7344_n7555#
X0 c1_n7344_n7555# m3_n7444_n7655# sky130_fd_pr__cap_mim_m3_1 l=2.325e+07u w=2.325e+07u
X1 c1_n2155_n7555# m3_n2255_n7655# sky130_fd_pr__cap_mim_m3_1 l=2.325e+07u w=2.325e+07u
X2 c1_n7344_n7555# m3_n7444_n2565# sky130_fd_pr__cap_mim_m3_1 l=2.325e+07u w=2.325e+07u
X3 c1_n2155_n7555# m3_n2255_n7655# sky130_fd_pr__cap_mim_m3_1 l=2.325e+07u w=2.325e+07u
X4 c1_3034_n7555# m3_2934_n7655# sky130_fd_pr__cap_mim_m3_1 l=2.325e+07u w=2.325e+07u
X5 c1_3034_n7555# m3_2934_n7655# sky130_fd_pr__cap_mim_m3_1 l=2.325e+07u w=2.325e+07u
X6 c1_n2155_n7555# m3_n2255_n7655# sky130_fd_pr__cap_mim_m3_1 l=2.325e+07u w=2.325e+07u
X7 c1_3034_n7555# m3_2934_n7655# sky130_fd_pr__cap_mim_m3_1 l=2.325e+07u w=2.325e+07u
X8 c1_n7344_n7555# m3_n7444_n2565# sky130_fd_pr__cap_mim_m3_1 l=2.325e+07u w=2.325e+07u
.ends

.subckt x10p_capacitor$2 sky130_fd_pr__cap_mim_m3_1_8NU5HM$2_0/m3_n2255_n7655# sky130_fd_pr__cap_mim_m3_1_8NU5HM$2_0/m3_n7444_n2565#
+ sky130_fd_pr__cap_mim_m3_1_8NU5HM$2_0/c1_n7344_n7555# sky130_fd_pr__cap_mim_m3_1_8NU5HM$2_0/c1_3034_n7555#
+ sky130_fd_pr__cap_mim_m3_1_8NU5HM$2_0/m3_2934_n7655# sky130_fd_pr__cap_mim_m3_1_8NU5HM$2_0/c1_n2155_n7555#
+ sky130_fd_pr__cap_mim_m3_1_8NU5HM$2_0/m3_n7444_n7655#
Xsky130_fd_pr__cap_mim_m3_1_8NU5HM$2_0 sky130_fd_pr__cap_mim_m3_1_8NU5HM$2_0/c1_n2155_n7555#
+ sky130_fd_pr__cap_mim_m3_1_8NU5HM$2_0/m3_n7444_n7655# sky130_fd_pr__cap_mim_m3_1_8NU5HM$2_0/m3_n2255_n7655#
+ sky130_fd_pr__cap_mim_m3_1_8NU5HM$2_0/m3_n7444_n2565# sky130_fd_pr__cap_mim_m3_1_8NU5HM$2_0/c1_3034_n7555#
+ sky130_fd_pr__cap_mim_m3_1_8NU5HM$2_0/m3_2934_n7655# sky130_fd_pr__cap_mim_m3_1_8NU5HM$2_0/c1_n7344_n7555#
+ sky130_fd_pr__cap_mim_m3_1_8NU5HM$2
.ends

.subckt sky130_fd_pr__nfet_01v8_28DC9G$1 a_n150_n788# a_n310_n874# a_150_n700# a_n208_n700#
X0 a_150_n700# a_n150_n788# a_n208_n700# a_n310_n874# sky130_fd_pr__nfet_01v8 ad=2.03e+12p pd=1.458e+07u as=2.03e+12p ps=1.458e+07u w=7e+06u l=1.5e+06u
.ends

.subckt x7w1_5l_nmos$1 sky130_fd_pr__nfet_01v8_28DC9G$1_0/a_n208_n700# sky130_fd_pr__nfet_01v8_28DC9G$1_0/a_n150_n788#
+ sky130_fd_pr__nfet_01v8_28DC9G$1_0/a_150_n700# VSUBS
Xsky130_fd_pr__nfet_01v8_28DC9G$1_0 sky130_fd_pr__nfet_01v8_28DC9G$1_0/a_n150_n788#
+ VSUBS sky130_fd_pr__nfet_01v8_28DC9G$1_0/a_150_n700# sky130_fd_pr__nfet_01v8_28DC9G$1_0/a_n208_n700#
+ sky130_fd_pr__nfet_01v8_28DC9G$1
.ends

.subckt sky130_fd_pr__nfet_01v8_6BSMN9$6$1 a_800_n42# a_n960_n216# a_n858_n42# a_n800_n130#
X0 a_800_n42# a_n800_n130# a_n858_n42# a_n960_n216# sky130_fd_pr__nfet_01v8 ad=1.218e+11p pd=1.42e+06u as=1.218e+11p ps=1.42e+06u w=420000u l=8e+06u
.ends

.subckt x024w8l_nmos$6$1 sky130_fd_pr__nfet_01v8_6BSMN9$6$1_0/a_n858_n42# sky130_fd_pr__nfet_01v8_6BSMN9$6$1_0/a_800_n42#
+ sky130_fd_pr__nfet_01v8_6BSMN9$6$1_0/a_n800_n130# VSUBS
Xsky130_fd_pr__nfet_01v8_6BSMN9$6$1_0 sky130_fd_pr__nfet_01v8_6BSMN9$6$1_0/a_800_n42#
+ VSUBS sky130_fd_pr__nfet_01v8_6BSMN9$6$1_0/a_n858_n42# sky130_fd_pr__nfet_01v8_6BSMN9$6$1_0/a_n800_n130#
+ sky130_fd_pr__nfet_01v8_6BSMN9$6$1
.ends

.subckt sky130_fd_pr__nfet_01v8_ZEJXTR$1 a_42_n5000# a_n202_n5174# a_n42_n5088# a_n100_n5000#
X0 a_42_n5000# a_n42_n5088# a_n100_n5000# a_n202_n5174# sky130_fd_pr__nfet_01v8 ad=1.45e+13p pd=1.0058e+08u as=1.45e+13p ps=1.0058e+08u w=5e+07u l=420000u
.ends

.subckt x50w042l_nmos$1 sky130_fd_pr__nfet_01v8_ZEJXTR$1_0/a_n100_n5000# sky130_fd_pr__nfet_01v8_ZEJXTR$1_0/a_n42_n5088#
+ sky130_fd_pr__nfet_01v8_ZEJXTR$1_0/a_42_n5000# VSUBS
Xsky130_fd_pr__nfet_01v8_ZEJXTR$1_0 sky130_fd_pr__nfet_01v8_ZEJXTR$1_0/a_42_n5000#
+ VSUBS sky130_fd_pr__nfet_01v8_ZEJXTR$1_0/a_n42_n5088# sky130_fd_pr__nfet_01v8_ZEJXTR$1_0/a_n100_n5000#